Version 4
SHEET 1 3424 680
WIRE 1456 -128 1360 -128
WIRE 1856 -128 1456 -128
WIRE 2032 -128 1856 -128
WIRE 2144 -128 2112 -128
WIRE 2208 -128 2144 -128
WIRE 2304 -128 2272 -128
WIRE 2352 -128 2304 -128
WIRE 2448 -128 2416 -128
WIRE 2512 -128 2448 -128
WIRE 2624 -128 2512 -128
WIRE 2720 -128 2624 -128
WIRE 1360 -112 1360 -128
WIRE 1456 -112 1456 -128
WIRE 2720 -112 2720 -128
WIRE 2512 -96 2512 -128
WIRE 2624 -96 2624 -128
WIRE 1856 -80 1856 -128
WIRE 2144 -64 2144 -128
WIRE 2304 -48 2304 -128
WIRE 1360 -16 1360 -32
WIRE 1456 -16 1456 -32
WIRE 1696 -16 1456 -16
WIRE 2032 -16 2016 -16
WIRE 2512 -16 2512 -32
WIRE 2624 -16 2624 -32
WIRE 2720 -16 2720 -32
WIRE 1456 0 1456 -16
WIRE 2144 0 2144 -64
WIRE 2304 64 2304 32
WIRE 1600 80 1568 80
WIRE 1696 80 1664 80
WIRE 2096 80 2016 80
WIRE 1456 96 1456 80
WIRE 2144 112 2144 96
WIRE 2144 112 2080 112
WIRE 2144 128 2144 112
WIRE 2448 144 2448 -128
WIRE 1600 176 1568 176
WIRE 1696 176 1680 176
WIRE 2080 176 2080 112
WIRE 2080 176 2016 176
WIRE 2144 224 2144 208
WIRE 1488 272 1472 272
WIRE 1568 272 1552 272
WIRE 1664 272 1648 272
WIRE 1696 272 1664 272
WIRE 2448 272 2448 224
WIRE 2448 272 2016 272
WIRE 2448 288 2448 272
WIRE 1488 352 1488 272
WIRE 1584 352 1488 352
WIRE 1664 352 1664 272
WIRE 1664 352 1648 352
WIRE 1856 352 1856 336
WIRE 2448 400 2448 368
FLAG 1568 176 0
FLAG 2448 400 0
FLAG 1856 352 0
FLAG 2512 -16 0
FLAG 1472 272 0
FLAG 2720 -16 0
FLAG 1360 -16 0
FLAG 1568 80 0
FLAG 2096 -16 0
FLAG 2720 -128 OUT
FLAG 1360 -128 IN
FLAG 1456 96 0
FLAG 2144 224 0
FLAG 2304 64 0
FLAG 2624 -16 0
FLAG 2144 -64 DRAIN
FLAG 2304 -128 ANODE
SYMBOL PowerProducts\\LT3757 1856 128 R0
SYMATTR InstName U1
SYMBOL NMOS 2096 0 R0
SYMATTR InstName Q1
SYMATTR Value FDS6680A
SYMBOL RES 1696 192 M270
WINDOW 0 32 56 VTop 2
WINDOW 3 0 56 VBottom 2
SYMATTR InstName R3
SYMATTR Value 3k
SYMBOL res 2432 272 R0
SYMATTR InstName R7
SYMATTR Value 7.5Meg
SYMBOL res 2432 128 R0
SYMATTR InstName R6
SYMATTR Value 1.3k
SYMBOL schottky 2352 -112 R270
WINDOW 0 32 32 VTop 2
WINDOW 3 0 32 VBottom 2
SYMATTR InstName D1
SYMATTR Value MBR735
SYMBOL polcap 2496 -96 R0
WINDOW 40 27 64 Left 2
WINDOW 3 40 36 Left 2
SYMATTR SpiceLine2 x2
SYMATTR Value 0.22e-3
SYMATTR InstName C6
SYMATTR SpiceLine Rser=70m
SYMBOL res 1664 288 M270
WINDOW 0 32 56 VTop 2
WINDOW 3 0 56 VBottom 2
SYMATTR InstName R4
SYMATTR Value 1.6k
SYMBOL cap 1552 288 M270
WINDOW 0 32 32 VTop 2
WINDOW 3 -1 23 VBottom 2
SYMATTR InstName C2
SYMATTR Value 2.2e-10
SYMBOL VOLTAGE 1360 -128 R0
WINDOW 123 0 0 Left 2
WINDOW 39 0 0 Left 2
SYMATTR InstName V1
SYMATTR Value 10
SYMBOL polcap 2032 -32 M90
WINDOW 0 0 32 VBottom 2
WINDOW 3 32 32 VTop 2
SYMATTR InstName C4
SYMATTR Value 1.8e-7
SYMBOL cap 1664 64 R90
WINDOW 0 0 32 VBottom 2
WINDOW 3 32 32 VTop 2
SYMATTR InstName C1
SYMATTR Value 2.7e-10
SYMBOL res 1440 -16 R0
SYMATTR InstName R2
SYMATTR Value 16Meg
SYMBOL res 1440 -128 R0
SYMATTR InstName R1
SYMATTR Value 3Meg
SYMBOL res 2704 -128 R0
SYMATTR InstName Rload
SYMATTR Value 5
SYMBOL res 2128 112 R0
SYMATTR InstName R5
SYMATTR Value 1.1
SYMBOL cap 2272 -144 R90
WINDOW 0 0 32 VBottom 2
WINDOW 3 32 32 VTop 2
SYMATTR InstName C5
SYMATTR Value 22m
SYMATTR SpiceLine Rser=50m
SYMBOL cap 1648 336 R90
WINDOW 0 0 32 VBottom 2
WINDOW 3 32 32 VTop 2
SYMATTR InstName C3
SYMATTR Value 1.8e-11
SYMBOL polcap 2608 -96 R0
WINDOW 3 40 36 Left 2
SYMATTR Value 15m
SYMATTR InstName C7
SYMATTR SpiceLine Rser=10m
SYMBOL ind 2016 -112 R270
WINDOW 0 32 56 VTop 2
WINDOW 3 5 56 VBottom 2
SYMATTR InstName L1
SYMATTR Value 6.2e-5
SYMBOL ind 2288 -64 R0
SYMATTR InstName L2
SYMATTR Value 0.33m
TEXT 1416 432 Left 2 !.tran 3m startup
TEXT 2936 -56 Left 2 !.meas vout rms v(out) from 2.4m to 2.5m\n.meas vpeak max v(out)
